<?xml version="1.0" encoding="UTF-8"?>

<!-- generated on 2022-08-23 20:55:24 by Eclipse SUMO netedit Version 1.12.0
<configuration xmlns:xsi="http://www.w3.org/2001/XMLSchema-instance" xsi:noNamespaceSchemaLocation="http://sumo.dlr.de/xsd/netconvertConfiguration.xsd">

    <input>
        <sumo-net-file value="C:\Users\LYP\Desktop\my_mpc\sumo\NEXT.net.xml"/>
    </input>

    <output>
        <output-file value="C:\Users\LYP\Desktop\my_mpc\sumo\NEXT.net.xml"/>
    </output>

    <processing>
        <geometry.min-radius.fix.railways value="false"/>
        <geometry.max-grade.fix value="false"/>
        <offset.disable-normalization value="true"/>
        <lefthand value="false"/>
    </processing>

    <junctions>
        <no-turnarounds value="true"/>
        <junctions.corner-detail value="5"/>
        <junctions.limit-turn-speed value="5.5"/>
        <rectangular-lane-cut value="false"/>
    </junctions>

    <pedestrian>
        <walkingareas value="false"/>
    </pedestrian>

    <report>
        <aggregate-warnings value="5"/>
    </report>

</configuration>
-->

<net version="1.9" junctionCornerDetail="5" limitTurnSpeed="5.50" xmlns:xsi="http://www.w3.org/2001/XMLSchema-instance" xsi:noNamespaceSchemaLocation="http://sumo.dlr.de/xsd/net_file.xsd">

    <location netOffset="0.00,0.00" convBoundary="0.00,0.00,10089.95,1.15" origBoundary="-10000000000.00,-10000000000.00,10000000000.00,10000000000.00" projParameter="!"/>

    <edge id=":J1_0" function="internal">
        <lane id=":J1_0_0" index="0" speed="22.22" length="0.10" shape="1200.00,1.60 1200.00,1.60"/>
    </edge>
    <edge id=":J1_1" function="internal">
        <lane id=":J1_1_0" index="0" speed="22.22" length="0.10" shape="1200.00,-1.60 1200.00,-1.60"/>
    </edge>
    <edge id=":J2_0" function="internal">
        <lane id=":J2_0_0" index="0" speed="22.22" length="0.10" shape="2200.00,1.60 2200.00,1.60"/>
    </edge>
    <edge id=":J2_1" function="internal">
        <lane id=":J2_1_0" index="0" speed="22.22" length="0.10" shape="2200.00,-1.60 2200.00,-1.60"/>
    </edge>
    <edge id=":J3_0" function="internal">
        <lane id=":J3_0_0" index="0" speed="22.22" length="0.10" shape="3700.00,1.60 3700.00,1.60"/>
    </edge>
    <edge id=":J3_1" function="internal">
        <lane id=":J3_1_0" index="0" speed="22.22" length="0.10" shape="3700.00,-1.60 3700.00,-1.60"/>
    </edge>
    <edge id=":J4_0" function="internal">
        <lane id=":J4_0_0" index="0" speed="22.22" length="0.10" shape="5100.00,1.60 5100.00,1.60"/>
    </edge>
    <edge id=":J4_1" function="internal">
        <lane id=":J4_1_0" index="0" speed="22.22" length="0.10" shape="5100.00,-1.60 5100.00,-1.60"/>
    </edge>
    <edge id=":J5_0" function="internal">
        <lane id=":J5_0_0" index="0" speed="22.22" length="0.10" shape="6400.00,1.60 6400.00,1.60"/>
    </edge>
    <edge id=":J5_1" function="internal">
        <lane id=":J5_1_0" index="0" speed="22.22" length="0.10" shape="6400.00,-1.60 6400.00,-1.60"/>
    </edge>
    <edge id=":J6_0" function="internal">
        <lane id=":J6_0_0" index="0" speed="22.22" length="0.10" shape="8000.00,1.60 8000.00,1.60"/>
    </edge>
    <edge id=":J6_1" function="internal">
        <lane id=":J6_1_0" index="0" speed="22.22" length="0.10" shape="8000.00,-1.60 8000.00,-1.60"/>
    </edge>
    <edge id=":J8_0" function="internal">
        <lane id=":J8_0_0" index="0" speed="22.22" length="0.27" shape="10000.13,1.60 9999.85,1.60"/>
    </edge>
    <edge id=":J8_1" function="internal">
        <lane id=":J8_1_0" index="0" speed="22.22" length="0.31" shape="9999.85,-1.60 10000.17,-1.60"/>
    </edge>

    <edge id="-E0" from="J1" to="J0" priority="-1">
        <lane id="-E0_0" index="0" speed="22.22" length="1200.00" shape="1200.00,1.60 0.00,1.60"/>
    </edge>
    <edge id="-E2" from="J3" to="J2" priority="-1">
        <lane id="-E2_0" index="0" speed="22.22" length="1500.00" shape="3700.00,1.60 2200.00,1.60"/>
    </edge>
    <edge id="-E3" from="J4" to="J3" priority="-1">
        <lane id="-E3_0" index="0" speed="22.22" length="1400.00" shape="5100.00,1.60 3700.00,1.60"/>
    </edge>
    <edge id="-E4" from="J5" to="J4" priority="-1">
        <lane id="-E4_0" index="0" speed="22.22" length="1300.00" shape="6400.00,1.60 5100.00,1.60"/>
    </edge>
    <edge id="-E5" from="J6" to="J5" priority="-1">
        <lane id="-E5_0" index="0" speed="22.22" length="1600.00" shape="8000.00,1.60 6400.00,1.60"/>
    </edge>
    <edge id="-E6" from="J8" to="J6" priority="-1">
        <lane id="-E6_0" index="0" speed="22.22" length="1999.85" shape="9999.85,1.60 8000.00,1.60"/>
    </edge>
    <edge id="-E7" from="J7" to="J8" priority="-1">
        <lane id="-E7_0" index="0" speed="22.22" length="89.81" shape="10089.93,2.75 10000.13,1.60"/>
    </edge>
    <edge id="E0" from="J0" to="J1" priority="-1">
        <lane id="E0_0" index="0" speed="22.22" length="1200.00" shape="0.00,-1.60 1200.00,-1.60"/>
    </edge>
    <edge id="E1" from="J1" to="J2" priority="-1">
        <lane id="E1_0" index="0" speed="22.22" length="1000.00" shape="1200.00,-1.60 2200.00,-1.60"/>
    </edge>
    <edge id="E11" from="J2" to="J1" priority="-1">
        <lane id="E11_0" index="0" speed="22.22" length="1000.00" shape="2200.00,1.60 1200.00,1.60"/>
    </edge>
    <edge id="E2" from="J2" to="J3" priority="-1">
        <lane id="E2_0" index="0" speed="22.22" length="1500.00" shape="2200.00,-1.60 3700.00,-1.60"/>
    </edge>
    <edge id="E3" from="J3" to="J4" priority="-1">
        <lane id="E3_0" index="0" speed="22.22" length="1400.00" shape="3700.00,-1.60 5100.00,-1.60"/>
    </edge>
    <edge id="E4" from="J4" to="J5" priority="-1">
        <lane id="E4_0" index="0" speed="22.22" length="1300.00" shape="5100.00,-1.60 6400.00,-1.60"/>
    </edge>
    <edge id="E5" from="J5" to="J6" priority="-1">
        <lane id="E5_0" index="0" speed="22.22" length="1600.00" shape="6400.00,-1.60 8000.00,-1.60"/>
    </edge>
    <edge id="E6" from="J6" to="J8" priority="-1">
        <lane id="E6_0" index="0" speed="22.22" length="1999.85" shape="8000.00,-1.60 9999.85,-1.60"/>
    </edge>
    <edge id="E7" from="J8" to="J7" priority="-1">
        <lane id="E7_0" index="0" speed="22.22" length="89.81" shape="10000.17,-1.60 10089.97,-0.45"/>
    </edge>

    <junction id="J0" type="dead_end" x="0.00" y="0.00" incLanes="-E0_0" intLanes="" shape="0.00,0.00 0.00,3.20 0.00,0.00"/>
    <junction id="J1" type="priority" x="1200.00" y="0.00" incLanes="E11_0 E0_0" intLanes=":J1_0_0 :J1_1_0" shape="1200.00,3.20 1200.00,-3.20 1200.00,3.20">
        <request index="0" response="00" foes="00" cont="0"/>
        <request index="1" response="00" foes="00" cont="0"/>
    </junction>
    <junction id="J2" type="priority" x="2200.00" y="0.00" incLanes="-E2_0 E1_0" intLanes=":J2_0_0 :J2_1_0" shape="2200.00,3.20 2200.00,-3.20 2200.00,3.20">
        <request index="0" response="00" foes="00" cont="0"/>
        <request index="1" response="00" foes="00" cont="0"/>
    </junction>
    <junction id="J3" type="priority" x="3700.00" y="0.00" incLanes="-E3_0 E2_0" intLanes=":J3_0_0 :J3_1_0" shape="3700.00,3.20 3700.00,-3.20 3700.00,3.20">
        <request index="0" response="00" foes="00" cont="0"/>
        <request index="1" response="00" foes="00" cont="0"/>
    </junction>
    <junction id="J4" type="priority" x="5100.00" y="0.00" incLanes="-E4_0 E3_0" intLanes=":J4_0_0 :J4_1_0" shape="5100.00,3.20 5100.00,-3.20 5100.00,3.20">
        <request index="0" response="00" foes="00" cont="0"/>
        <request index="1" response="00" foes="00" cont="0"/>
    </junction>
    <junction id="J5" type="priority" x="6400.00" y="0.00" incLanes="-E5_0 E4_0" intLanes=":J5_0_0 :J5_1_0" shape="6400.00,3.20 6400.00,-3.20 6400.00,3.20">
        <request index="0" response="00" foes="00" cont="0"/>
        <request index="1" response="00" foes="00" cont="0"/>
    </junction>
    <junction id="J6" type="priority" x="8000.00" y="0.00" incLanes="-E6_0 E5_0" intLanes=":J6_0_0 :J6_1_0" shape="8000.00,3.20 8000.00,-3.20 8000.00,3.20">
        <request index="0" response="00" foes="00" cont="0"/>
        <request index="1" response="00" foes="00" cont="0"/>
    </junction>
    <junction id="J7" type="dead_end" x="10089.95" y="1.15" incLanes="E7_0" intLanes="" shape="10089.95,1.15 10089.99,-2.05 10089.95,1.15"/>
    <junction id="J8" type="priority" x="10000.00" y="0.00" incLanes="-E7_0 E6_0" intLanes=":J8_0_0 :J8_1_0" shape="10000.10,3.20 10000.19,-3.20 9999.85,-3.20 9999.85,3.20">
        <request index="0" response="00" foes="00" cont="0"/>
        <request index="1" response="00" foes="00" cont="0"/>
    </junction>

    <connection from="-E2" to="E11" fromLane="0" toLane="0" via=":J2_0_0" dir="s" state="M"/>
    <connection from="-E3" to="-E2" fromLane="0" toLane="0" via=":J3_0_0" dir="s" state="M"/>
    <connection from="-E4" to="-E3" fromLane="0" toLane="0" via=":J4_0_0" dir="s" state="M"/>
    <connection from="-E5" to="-E4" fromLane="0" toLane="0" via=":J5_0_0" dir="s" state="M"/>
    <connection from="-E6" to="-E5" fromLane="0" toLane="0" via=":J6_0_0" dir="s" state="M"/>
    <connection from="-E7" to="-E6" fromLane="0" toLane="0" via=":J8_0_0" dir="s" state="M"/>
    <connection from="E0" to="E1" fromLane="0" toLane="0" via=":J1_1_0" dir="s" state="M"/>
    <connection from="E1" to="E2" fromLane="0" toLane="0" via=":J2_1_0" dir="s" state="M"/>
    <connection from="E11" to="-E0" fromLane="0" toLane="0" via=":J1_0_0" dir="s" state="M"/>
    <connection from="E2" to="E3" fromLane="0" toLane="0" via=":J3_1_0" dir="s" state="M"/>
    <connection from="E3" to="E4" fromLane="0" toLane="0" via=":J4_1_0" dir="s" state="M"/>
    <connection from="E4" to="E5" fromLane="0" toLane="0" via=":J5_1_0" dir="s" state="M"/>
    <connection from="E5" to="E6" fromLane="0" toLane="0" via=":J6_1_0" dir="s" state="M"/>
    <connection from="E6" to="E7" fromLane="0" toLane="0" via=":J8_1_0" dir="s" state="M"/>

    <connection from=":J1_0" to="-E0" fromLane="0" toLane="0" dir="s" state="M"/>
    <connection from=":J1_1" to="E1" fromLane="0" toLane="0" dir="s" state="M"/>
    <connection from=":J2_0" to="E11" fromLane="0" toLane="0" dir="s" state="M"/>
    <connection from=":J2_1" to="E2" fromLane="0" toLane="0" dir="s" state="M"/>
    <connection from=":J3_0" to="-E2" fromLane="0" toLane="0" dir="s" state="M"/>
    <connection from=":J3_1" to="E3" fromLane="0" toLane="0" dir="s" state="M"/>
    <connection from=":J4_0" to="-E3" fromLane="0" toLane="0" dir="s" state="M"/>
    <connection from=":J4_1" to="E4" fromLane="0" toLane="0" dir="s" state="M"/>
    <connection from=":J5_0" to="-E4" fromLane="0" toLane="0" dir="s" state="M"/>
    <connection from=":J5_1" to="E5" fromLane="0" toLane="0" dir="s" state="M"/>
    <connection from=":J6_0" to="-E5" fromLane="0" toLane="0" dir="s" state="M"/>
    <connection from=":J6_1" to="E6" fromLane="0" toLane="0" dir="s" state="M"/>
    <connection from=":J8_0" to="-E6" fromLane="0" toLane="0" dir="s" state="M"/>
    <connection from=":J8_1" to="E7" fromLane="0" toLane="0" dir="s" state="M"/>

</net>
